$
$ GRID Points ...........................................
$
GRID,11,,0.0,0.0,0.0
GRID,12,,100.0,0.0,0.0

$
$ CBEAM Elements  ........................................
$
CBEAM,21,30,11,12,0.,1.,0.
PBEAM,30,40,0.187,3.9-3,2.1-3,,4.7-3

$
$
$
FORCE,200,12,,10.,-1.,0.,0.
$
SPC1,100,1234,11 
SPC1,100,23,12
$$ Material
MAT1,40,3+7,,.3
$
$
$1------2-------3-------4-------5-------6-------7-------8-------9-------
$EIGRL   30                      3
EIGRL,30,0.,,3