$
$ GRID Points ...........................................
$
GRID,11,,1.,1.,0.,,3456
GRID,12,,0.,0.,0.,,123456
GRID,13,,1.,0.,0.,,123456
$
$ CROD Elements  ........................................
$
CROD,21,20,11,12
CROD,22,21,11,13
$
$1------2-------3-------4-------5-------6-------7-------8-------9-------        
PROD,20,40,5.657-4,1,0.,0.0
PROD,21,40,4.-4,1,0.,0.0
$
$
$
$
$
FORCE,88,11,,50000.,1.,0.,0.
$                                                                                
$$ Material
MAT1,40,2.1+11,,0.3,2.59E-4
$
$works well also
$$SPC1,1,123456,12
$$SPC1,1,123456,13
$$SPC1,1,3456,11
$only if sol103
$1------2-------3-------4-------5-------6-------7-------8-------9-------
EIGRL   30                      2