$ Direct Text Input for Bulk Data
EIGRL    1                       20      0                       MASS
$ Elements and Element Properties for region : shell_prop
PSHELL   1       1      .01      1               1
$ Pset: "shell_prop" will be imported as: "pshell.1"
CQUAD4   1       1       1       2       27      26
CQUAD4   2       1       2       3       28      27
CQUAD4   3       1       3       4       29      28
CQUAD4   4       1       4       5       30      29
CQUAD4   5       1       5       6       31      30
CQUAD4   6       1       6       7       32      31
CQUAD4   7       1       7       8       33      32
CQUAD4   8       1       8       9       34      33
CQUAD4   9       1       9       10      35      34
CQUAD4   10      1       10      11      36      35
CQUAD4   11      1       11      12      37      36
CQUAD4   12      1       12      13      38      37
CQUAD4   13      1       13      14      39      38
CQUAD4   14      1       14      15      40      39
CQUAD4   15      1       15      16      41      40
CQUAD4   16      1       16      17      42      41
CQUAD4   17      1       17      18      43      42
CQUAD4   18      1       18      19      44      43
CQUAD4   19      1       19      20      45      44
CQUAD4   20      1       20      21      46      45
$ ... 556 like lines cut
$ Referenced Material Records
$ Material Record : Al_2024-T3
$ Description of Material : Date: 18-May-17           Time: 16:23:43
MAT1     1      7.31+10         .33     2780.
$GRDSET                                                 PS                                                  
GRDSET                                                  6
$ Nodes of Group : default_group
GRID     1               0.      0.      0.
GRID*    2                              .20833332836628  0.
*        0.
GRID*    3                              .416666686534882 0.
*        0.
GRID     4              .625     0.      0.
GRID*    5                              .833333373069763 0.
*        0.
GRID*    6                              1.04166650772095 0.
*        0.
GRID*    7                              1.24999988079071 0.
*        0.
GRID*    8                              1.45833313465118 0.
*        0.
GRID*    9                              1.66666662693024 0.
*        0.
GRID*    10                             1.87499988079071 0.
*        0.
GRID*    11                             2.08333325386047 0.
*        0.
GRID*    12                             2.29166650772095 0.
*        0.
GRID*    13                             2.49999976158142 0.
*        0.
GRID*    14                             2.70833349227905 0.
*        0.
GRID*    15                             2.91666650772095 0.
*        0.
GRID     16             3.125    0.      0.
GRID*    17                             3.33333349227905 0.
*        0.
GRID*    18                             3.54166650772095 0.
*        0.
GRID     19             3.75     0.      0.
GRID*    20                             3.95833349227905 0.
*        0.
GRID*    21                             4.16666650772095 0.
*        0.
GRID     22             4.375    0.      0.
GRID*    23                             4.58333349227905 0.
*        0.
GRID*    24                             4.79166650772095 0.
*        0.
GRID     25             5.       0.      0.
GRID*    26                              0.             .416666269302368
*        0.
GRID*    27                             .203125         .416666269302368
*        0.
GRID*    28                             .406250029802322.416666299104691
*        0.
GRID*    29                             .609375         .416666299104691
*        0.
GRID*    30                             .812500059604645.416666358709335
*        0.
GRID*    31                             1.01562488079071.416666358709335
*        0.
GRID*    32                             1.21875         .416666388511658
*        0.
GRID*    33                             1.42187488079071.416666388511658
*        0.
GRID*    34                             1.62499988079071.41666641831398
*        0.
GRID*    35                             1.82812488079071.41666641831398
*        0.
GRID*    36                             2.03124976158142.416666448116303
*        0.
GRID*    37                             2.234375        .416666448116303
*        0.
GRID*    38                             2.4375          .416666448116303
*        0.
GRID*    39                             2.64062523841858.416666477918625
*        0.
GRID*    40                             2.84375         .416666477918625
*        0.
GRID*    41                             3.046875        .41666653752327
*        0.
GRID*    42                             3.25000023841858.41666653752327
*        0.
GRID*    43                             3.453125        .416666567325592
*        0.
GRID*    44                             3.65625         .416666567325592
*        0.
GRID*    45                             3.85937523841858.416666597127914
*        0.
$ ... 108 like lines cut
GRID     100            4.625   1.25     0.
GRID*    101                             0.             1.66666626930237
*        0.
GRID*    102                            .1875000298023221.66666626930237
*        0.
GRID*    103                            .3750000298023221.66666626930237
*        0.
GRID*    104                            .5625           1.66666626930237
*        0.
GRID*    105                            .7500000596046451.66666626930237
*        0.
GRID*    106                            .9374999403953551.66666638851166
*        0.
GRID*    107                            1.125           1.66666638851166
*        0.
GRID*    108                            1.312499880790711.66666638851166
*        0.
GRID*    109                            1.5             1.66666638851166
*        0.
GRID*    110                            1.687499880790711.66666638851166
*        0.
GRID*    111                            1.874999880790711.66666638851166
*        0.
GRID*    112                            2.0625          1.66666638851166
*        0.
GRID*    113                            2.25            1.66666638851166
*        0.
GRID*    114                            2.437500238418581.66666650772095
*        0.
GRID*    115                            2.625           1.66666650772095
*        0.
GRID*    116                            2.8125          1.66666650772095
*        0.
GRID*    117                            3.000000238418581.66666650772095
*        0.
GRID*    118                            3.1875          1.66666650772095
*        0.
GRID*    119                            3.375           1.66666650772095
*        0.
GRID*    120                            3.562500238418581.66666650772095
*        0.
$ ... 102 like lines cut
GRID     172            3.71875 2.5      0.
GRID*    173                            3.895833492279052.5
*        0.
GRID*    174                            4.072916507720952.5
*        0.
GRID     175            4.25    2.5      0.
GRID*    176                             0.             2.91666555404663
*        0.
GRID*    177                            .1718750298023222.91666555404663
*        0.
GRID*    178                            .34375          2.91666555404663
*        0.
GRID*    179                            .5156250596046452.91666555404663
*        0.
GRID*    180                            .6875000596046452.91666555404663
*        0.
GRID*    181                            .8593749403953552.91666603088379
*        0.
GRID*    182                            1.03125         2.91666603088379
*        0.
GRID*    183                            1.203124880790712.91666603088379
*        0.
GRID*    184                            1.375000119209292.91666603088379
*        0.
GRID*    185                            1.546875        2.91666603088379
*        0.
GRID*    186                            1.71875         2.91666603088379
*        0.
GRID*    187                            1.890625119209292.91666603088379
*        0.
GRID*    188                            2.0625          2.91666603088379
*        0.
GRID*    189                            2.234375238418582.91666626930237
*        0.
GRID*    190                            2.40625         2.91666626930237
*        0.
GRID*    191                            2.578125238418582.91666626930237
*        0.
GRID*    192                            2.750000238418582.91666626930237
*        0.
GRID*    193                            2.921875        2.91666626930237
*        0.
GRID*    194                            3.093750238418582.91666626930237
*        0.
GRID*    195                            3.265625238418582.91666626930237
*        0.
$ ... 60 like lines cut
GRID     226             0.     3.75     0.
GRID*    227                            .1614583581686023.75
*        0.
GRID*    228                            .3229166567325593.75
*        0.
GRID     229            .484375 3.75     0.
GRID*    230                            .6458333730697633.75
*        0.
GRID*    231                            .8072915673255923.75
*        0.
GRID*    232                            .9687499403953553.75
*        0.
GRID*    233                            1.130208134651183.75
*        0.
GRID*    234                            1.291666746139533.75
*        0.
GRID*    235                            1.453124880790713.75
*        0.
GRID*    236                            1.614583253860473.75
*        0.
GRID*    237                            1.776041746139533.75
*        0.
GRID*    238                            1.937499880790713.75
*        0.
GRID*    239                            2.098958492279053.75
*        0.
GRID*    240                            2.260416746139533.75
*        0.
GRID     241            2.4218753.75     0.
GRID*    242                            2.583333492279053.75
*        0.
GRID*    243                            2.744791746139533.75
*        0.
GRID     244            2.90625 3.75     0.
GRID*    245                            3.067708492279053.75
*        0.
GRID*    246                            3.229166746139533.75
*        0.
GRID     247            3.3906253.75     0.
GRID*    248                            3.552083492279053.75
*        0.
GRID*    249                            3.713541507720953.75
*        0.
GRID     250            3.875   3.75     0.
GRID*    251                             0.             4.16666603088379
*        0.
GRID*    252                            .1562500298023224.16666603088379
*        0.
GRID*    253                            .3125           4.16666603088379
*        0.
GRID*    254                            .4687500298023224.16666603088379
*        0.
GRID*    255                            .6250000596046454.16666603088379
*        0.
GRID*    256                            .7812499403953554.16666603088379
*        0.
GRID*    257                            .9375           4.16666603088379
*        0.
GRID*    258                            1.093749880790714.16666650772095
*        0.
GRID*    259                            1.250000119209294.16666650772095
*        0.
GRID*    260                            1.406249880790714.16666650772095
*        0.
GRID*    261                            1.562499880790714.16666650772095
*        0.
GRID*    262                            1.718750119209294.16666650772095
*        0.
GRID*    263                            1.875           4.16666650772095
*        0.
GRID*    264                            2.031250238418584.16666650772095
*        0.
GRID*    265                            2.1875          4.16666650772095
*        0.
GRID*    266                            2.34375         4.16666650772095
*        0.
GRID*    267                            2.500000238418584.16666650772095
*        0.
GRID*    268                            2.65625         4.16666650772095
*        0.
GRID*    269                            2.8125          4.16666698455811
*        0.
GRID*    270                            2.96875         4.16666698455811
*        0.
$ ... 210 like lines cut
GRID     376             0.     6.25     0.
GRID*    377                            .1302083730697636.25
*        0.
GRID*    378                            .2604166269302376.25
*        0.
GRID     379            .390625 6.25     0.
GRID*    380                            .5208333730697636.25
*        0.
GRID*    381                            .6510416269302376.25
*        0.
GRID     382            .78125  6.25     0.
GRID*    383                            .9114581942558296.25000047683716
*        0.
GRID*    384                            1.041666626930246.25000047683716
*        0.
GRID*    385                            1.171875        6.25000047683716
*        0.
GRID*    386                            1.302083134651186.25000047683716
*        0.
GRID*    387                            1.432291626930246.25000047683716
*        0.
GRID*    388                            1.5625          6.25000047683716
*        0.
GRID*    389                            1.692708373069766.25000047683716
*        0.
GRID*    390                            1.822916507720956.25000047683716
*        0.
GRID*    391                            1.953124880790716.25000047683716
*        0.
GRID*    392                            2.083333253860476.25000047683716
*        0.
GRID*    393                            2.213541507720956.25000047683716
*        0.
GRID*    394                            2.343749761581426.25000095367432
*        0.
GRID*    395                            2.473958253860476.25000095367432
*        0.
GRID*    396                            2.604166269302376.25000095367432
*        0.
GRID*    397                            2.734374761581426.25000095367432
*        0.
GRID*    398                            2.8645830154419 6.25000095367432
*        0.
GRID*    399                            2.994791269302376.25000095367432
*        0.
GRID*    400                            3.124999523162846.25000095367432
*        0.
GRID*    401                             0.             6.66666746139526
*        0.
GRID*    402                            .1250000298023226.66666746139526
*        0.
$ ... 96 like lines cut
GRID     451             0.     7.5      0.
GRID*    452                            .1145833805203447.5
*        0.
GRID*    453                            .2291666418313987.5
*        0.
GRID     454            .34375  7.5      0.
GRID*    455                            .4583334028720867.5
*        0.
GRID*    456                            .5729166269302377.5
*        0.
GRID     457            .6875   7.5      0.
GRID*    458                            .8020831942558297.50000047683716
*        0.
GRID*    459                            .9166667461395267.50000047683716
*        0.
GRID*    460                            1.03125         7.50000047683716
*        0.
GRID*    461                            1.145833134651187.50000047683716
*        0.
GRID*    462                            1.260416746139537.50000047683716
*        0.
GRID*    463                            1.375           7.50000047683716
*        0.
GRID*    464                            1.489583373069767.50000047683716
*        0.
GRID*    465                            1.604166507720957.50000047683716
*        0.
GRID*    466                            1.71875         7.50000047683716
*        0.
GRID*    467                            1.833333373069767.50000047683716
*        0.
GRID*    468                            1.947916507720957.50000047683716
*        0.
GRID*    469                            2.062499761581427.50000095367432
*        0.
GRID*    470                            2.177083253860477.50000095367432
*        0.
GRID*    471                            2.291666269302377.50000095367432
*        0.
GRID*    472                            2.406249761581427.50000095367432
*        0.
GRID*    473                            2.5208330154419 7.50000095367432
*        0.
GRID*    474                            2.635416269302377.50000095367432
*        0.
GRID*    475                            2.749999523162847.50000095367432
*        0.
GRID*    476                             0.             7.91666698455811
*        0.
GRID*    477                            .1093750447034847.91666698455811
*        0.
$ ... 96 like lines cut
GRID     526             0.     8.75     0.
GRID*    527                            .0989583730697638.75
*        0.
GRID*    528                            .1979166269302378.75
*        0.
GRID     529            .296875 8.75     0.
GRID*    530                            .3958333730697638.75000095367432
*        0.
GRID*    531                            .4947915971279148.75000095367432
*        0.
GRID*    532                            .59375          8.75000095367432
*        0.
GRID*    533                            .6927081942558298.75000095367432
*        0.
GRID*    534                            .7916667461395268.75000095367432
*        0.
GRID*    535                            .8906249403953558.75000095367432
*        0.
GRID*    536                            .9895831942558298.75000095367432
*        0.
GRID*    537                            1.088541746139538.75000095367432
*        0.
GRID*    538                            1.187499880790718.75000095367432
*        0.
GRID*    539                            1.286458253860478.75000095367432
*        0.
GRID*    540                            1.385416507720958.75000095367432
*        0.
GRID*    541                            1.484374880790718.75000095367432
*        0.
GRID*    542                            1.583333253860478.75000095367432
*        0.
GRID*    543                            1.682291388511668.75000095367432
*        0.
GRID*    544                            1.781249761581428.75000095367432
*        0.
GRID*    545                            1.880208134651188.75000095367432
*        0.
GRID*    546                            1.979166388511668.75000095367432
*        0.
GRID*    547                            2.078124523162848.75000190734863
*        0.
GRID*    548                            2.1770830154419 8.75000190734863
*        0.
GRID*    549                            2.276041030883798.75000190734863
*        0.
$ ... 102 like lines cut
GRID     601             0.     10.      0.
GRID*    602                            .08333337306976310.
*        0.
GRID*    603                            .16666662693023710.
*        0.
GRID     604            .25     10.      0.
GRID*    605                            .33333340287208610.
*        0.
GRID*    606                            .41666665673255910.
*        0.
GRID     607            .5      10.      0.
GRID*    608                            .58333331346511810.
*        0.
GRID*    609                            .66666680574417110.
*        0.
GRID*    610                            .75000005960464510.
*        0.
GRID*    611                            .83333331346511810.
*        0.
GRID*    612                            .91666680574417110.
*        0.
GRID     613            1.      10.      0.
GRID*    614                            1.0833333730697610.
*        0.
GRID*    615                            1.1666666269302410.
*        0.
GRID     616            1.25    10.      0.
GRID*    617                            1.3333333730697610.
*        0.
GRID*    618                            1.4166666269302410.
*        0.
GRID     619            1.5     10.      0.
GRID*    620                            1.5833333730697610.
*        0.
GRID*    621                            1.6666666269302410.
*        0.
GRID     622            1.75    10.      0.
GRID*    623                            1.8333333730697610.
*        0.
GRID*    624                            1.9166666269302410.
*        0.
GRID     625            2.      10.      0.
$ Displacement Constraints of Load Set : CFFF
SPC1     1       123456  1
SPC1     1       123456  2
SPC1     1       123456  3
SPC1     1       123456  4
SPC1     1       123456  5
SPC1     1       123456  6
SPC1     1       123456  7
SPC1     1       123456  8
SPC1     1       123456  9
SPC1     1       123456  10
SPC1     1       123456  11
SPC1     1       123456  12
SPC1     1       123456  13
SPC1     1       123456  14
SPC1     1       123456  15
SPC1     1       123456  16
SPC1     1       123456  17
SPC1     1       123456  18
SPC1     1       123456  19
SPC1     1       123456  20
$ ... 5 like lines cut

