$     DEFINE PROPERTIES OF PLATE ELEMENTS
MAT1,1,7.31+10,,.33,2780.
$
$     DEFINE PLATE ELEMENTS
CQUAD4,1,1,1,2,8,7
CQUAD4,2,1,2,3,9,8
CQUAD4,3,1,3,4,10,9
CQUAD4,4,1,4,5,11,10
CQUAD4,5,1,5,6,12,11
CQUAD4,6,1,7,8,14,13
CQUAD4,7,1,8,9,15,14
CQUAD4,8,1,9,10,16,15
CQUAD4,9,1,10,11,17,16
CQUAD4,10,1,11,12,18,17
CQUAD4,11,1,13,14,20,19
CQUAD4,12,1,14,15,21,20
CQUAD4,13,1,15,16,22,21
CQUAD4,14,1,16,17,23,22
CQUAD4,15,1,17,18,24,23
CQUAD4,16,1,19,20,26,25
CQUAD4,17,1,20,21,27,26
CQUAD4,18,1,21,22,28,27
CQUAD4,19,1,22,23,29,28
CQUAD4,20,1,23,24,30,29
$ ... 30 like lines cut
$     DEFINE SHELL PROPERTIES
PSHELL,1,1,.01,1,,1
$GRDSET                                                 PS                                                  
GRDSET                                                  6
$ 
$     DEFINE GRID POINTS
GRID,1,,0.,0.,0.,
GRID,2,,1.,0.,0.,
GRID,3,,2.,0.,0.,
GRID,4,,3.00000023841858,0.,0.,
GRID,5,,4.,0.,0.,
GRID,6,,5.,0.,0.,
GRID,7,,0.,.999999046325684,0.
GRID,8,,.940000057220459,.999999284744263,0.
GRID,9,,1.88000011444092,.999999403953552,0.
GRID,10,,2.82000017166138,.999999642372131,0.
GRID,11,,3.76000022888184,.999999821186066,0.
GRID,12,,4.69999980926514,1.,0.
GRID,13,,0.,1.99999928474426,0.
GRID,14,,.880000054836273,1.99999940395355,0.
GRID,15,,1.76000010967255,1.99999952316284,0.
GRID,16,,2.64000010490418,1.99999976158142,0.
GRID,17,,3.52000021934509,1.99999988079071,0.
GRID,18,,4.40000009536743,2.,0.
GRID,19,,0.,2.99999952316284,0.
GRID,20,,.820000052452087,2.99999952316284,0.
$ ... 46 like lines cut
$     DEFINE FIXED EDGE CFFF
SPC1,1,123456,1
SPC1,1,123456,2
SPC1,1,123456,3
SPC1,1,123456,4
SPC1,1,123456,5
SPC1,1,123456,6
$     FORCES
FORCE,1,61,0,500.,0.,0.,1.
FORCE,1,62,0,500.,0.,0.,1.
FORCE,1,63,0,500.,0.,0.,1.
FORCE,1,64,0,500.,0.,0.,1.
FORCE,1,65,0,500.,0.,0.,1.
FORCE,1,66,0,500.,0.,0.,1.
$     EIGEN
EIGRL,1,,,10                             